[TITLE]


[JUNCTIONS]
;ID              	Elev        	Demand      	Pattern         
 2               	0           	247.22      	2               	;
 3               	0           	236.11      	2               	;
 4               	0           	36.11       	2               	;
 5               	0           	201.39      	2               	;
 6               	0           	279.17      	2               	;
 7               	0           	375         	2               	;
 8               	0           	152.78      	2               	;
 9               	0           	45.83       	2               	;
 10              	0           	145.83      	2               	;
 11              	0           	138.89      	2               	;
 12              	0           	155.56      	2               	;
 13              	0           	261.11      	2               	;
 14              	0           	170.83      	2               	;
 15              	0           	77.78       	2               	;
 16              	0           	86.11       	2               	;
 17              	0           	240.28      	2               	;
 18              	0           	373.61      	2               	;
 19              	0           	16.17       	2               	;
 20              	0           	354.17      	2               	;
 21              	0           	258.33      	2               	;
 22              	0           	134.72      	2               	;
 23              	0           	290.28      	2               	;
 24              	0           	227.78      	2               	;
 25              	0           	47.22       	2               	;
 26              	0           	250         	2               	;
 27              	0           	102.78      	2               	;
 28              	0           	80.56       	2               	;
 29              	0           	100         	2               	;
 30              	0           	100         	2               	;
 31              	0           	29.17       	2               	;
 32              	0           	223.61      	2               	;

[RESERVOIRS]
;ID              	Head        	Pattern         
 1               	130         	                	;

[TANKS]
;ID              	Elevation   	InitLevel   	MinLevel    	MaxLevel    	Diameter    	MinVol      	VolCurve

[PIPES]
;ID              	Node1           	Node2           	Length      	Diameter    	Roughness   	MinorLoss   	Status
 1               	1               	2               	100         	1016        	120         	0           	Open  	;
 2               	2               	3               	1350        	1016        	120         	0           	Open  	;
 3               	3               	4               	900         	1016        	120         	0           	Open  	;
 4               	4               	5               	1150        	1016        	120         	0           	Open  	;
 5               	5               	6               	1450        	1016        	120         	0           	Open  	;
 6               	6               	7               	450         	1016        	120         	0           	Open  	;
 7               	7               	8               	850         	1016        	120         	0           	Open  	;
 8               	8               	9               	850         	1016        	120         	0           	Open  	;
 9               	9               	10              	800         	1016        	120         	0           	Open  	;
 10              	10              	11              	950         	762         	120         	0           	Open  	;
 11              	11              	12              	1200        	610         	120         	0           	Open  	;
 12              	12              	13              	3500        	610         	120         	0           	Open  	;
 13              	10              	14              	800         	508         	120         	0           	Open  	;
 14              	14              	15              	500         	300         	120         	0           	Open  	;
 15              	15              	16              	550         	300         	120         	0           	Open  	;
 16              	16              	17              	2730        	300         	120         	0           	Open  	;
 17              	17              	18              	1750        	508         	120         	0           	Open  	;
 18              	18              	19              	800         	508         	120         	0           	Open  	;
 19              	19              	3               	400         	610         	120         	0           	Open  	;
 20              	3               	20              	2200        	1016        	120         	0           	Open  	;
 21              	20              	21              	1500        	508         	120         	0           	Open  	;
 22              	21              	22              	500         	300         	120         	0           	Open  	;
 23              	20              	23              	2650        	1016        	120         	0           	Open  	;
 24              	23              	24              	1230        	762         	120         	0           	Open  	;
 25              	24              	25              	1300        	762         	120         	0           	Open  	;
 26              	25              	26              	850         	508         	120         	0           	Open  	;
 27              	26              	27              	300         	300         	120         	0           	Open  	;
 28              	27              	16              	750         	300         	120         	0           	Open  	;
 29              	23              	28              	1500        	407         	120         	0           	Open  	;
 30              	28              	29              	2000        	300         	120         	0           	Open  	;
 31              	29              	30              	1600        	300         	120         	0           	Open  	;
 32              	30              	31              	150         	300         	120         	0           	Open  	;
 33              	31              	32              	860         	508         	120         	0           	Open  	;
 34              	32              	25              	950         	610         	120         	0           	Open  	;

[PUMPS]
;ID              	Node1           	Node2           	Parameters

[VALVES]
;ID              	Node1           	Node2           	Diameter    	Type	Setting     	MinorLoss   

[TAGS]

[DEMANDS]
;Junction        	Demand      	Pattern         	Category

[STATUS]
;ID              	Status/Setting

[PATTERNS]
;ID              	Multipliers
; IW Fixed Head and Well control time profiles are only exported to the last time value in the profile.
 2               	1.000000    	0.999736    	0.999868    	0.999472    	0.999472    	0.999472    
 2               	0.999736    	0.999736    	0.999868    	1.000132    	1.000264    	1.000396    
 2               	1.000396    	1.000528    	1.000396    	1.000528    	1.000793    	1.000793    
 2               	1.001057    	1.000925    	1.001057    	1.001189    	1.001057    	1.001189    
 2               	1.001321    	1.001585    	1.001453    	1.001453    	1.001321    	1.001453    
 2               	1.001453    	1.001189    	1.001189    	1.001057    	1.001321    	1.001453    
 2               	1.001453    	1.001453    	1.001981    	1.002113    	1.002113    	1.002113    
 2               	1.002378    	1.002906    	1.003434    	1.003170    	1.003170    	1.003434    
 2               	1.003170    	1.003302    	1.003302    	1.003434    	1.003434    	1.003434    
 2               	1.003698    	1.003434    	1.003434    	1.003566    	1.003566    	1.003831    
 2               	1.003963    	1.003566    	1.003566    	1.003434    	1.003434    	1.003963    
 2               	1.003434    	1.003698    	1.003831    	1.003698    	1.003963    	1.003963    
 2               	1.003963    	1.003963    	1.003963    	1.003963    	1.003963    	1.003963    
 2               	1.003963    	1.003963    	1.004095    	1.003963    	1.004095    	1.003963    
 2               	1.004227    	1.004227    	1.004227    	1.004227    	1.004227    	1.004227    
 2               	1.004095    	1.003963    	1.003698    	1.003434    	1.003831    	1.003698    
 2               	1.003698    	1.003698    	1.003831    	1.003698    	1.003831    	1.003698    
 2               	1.003698    	1.003698    	1.004095    	1.003963    	1.003963    	1.003831    
 2               	1.003963    	1.003963    	1.003963    	1.003963    	1.003698    	1.003698    
 2               	1.003698    	1.003698    	1.003963    	1.004227    	1.004095    	1.004095    
 2               	1.003963    	1.003566    	1.003566    	1.003434    	1.003698    	1.003566    
 2               	1.003698    	1.003434    	1.003698    	1.003698    	1.003698    	1.003831    
 2               	1.003963    	1.003698    	1.003963    	1.003963    	1.003831    	1.003963    
 2               	1.003831    	1.004227    	1.003963    	1.003963    	1.003698    	1.004095    
 2               	1.003963    	1.003963    	1.003831    	1.003963    	1.003963    	1.003831    
 2               	1.003698    	1.003302    	1.003302    	1.003170    	1.003434    	1.003170    
 2               	1.003302    	1.003302    	1.003434    	1.003434    	1.003434    	1.003434    
 2               	1.003434    	1.003566    	1.003566    	1.003566    	1.003698    	1.003434    
 2               	1.003434    	1.003566    	1.003566    	1.003434    	1.003434    	1.003566    
 2               	1.003566    	1.003434    	1.003434    	1.003434    	1.003434    	1.003302    
 2               	1.003038    	1.002642    	1.002113    	1.002113    	1.001849    	1.001453    
 2               	1.001849    	1.001849    	1.001849    	1.001717    	1.001453    	1.001321    
 2               	1.001453    	1.001585    	1.001585    	1.001585    	1.001453    	1.001057    
 2               	1.000793    	1.000793    	1.000793    	1.000793    	1.000793    	1.001189    
 2               	1.000793    	1.000660    	1.000660    	1.000660    	1.000396    	1.000000    
 2               	0.999868    	0.999472    	0.998811    	0.998679    	0.998283    	0.998151    
 2               	0.998283    	0.998151    	0.998415    	0.998415    	0.998283    	0.998415    
 2               	0.998283    	0.998283    	0.998943    	0.998811    	0.998415    	0.998151    
 2               	0.997887    	0.998019    	0.998151    	0.998547    	0.998415    	0.998151    
 2               	0.998151    	0.997887    	0.997622    	0.998943    	0.998811    	0.998547    
 2               	0.998547    	0.998547    	0.998151    	0.998415    	0.998151    	0.998283    
 2               	0.998151    	0.998151    	0.998283    	0.998415    	0.998151    	0.998415    
 2               	0.998679    	0.998679    	0.998811    	0.998943    	0.998811    	0.998679    
 2               	0.999075    	0.999207    	0.999207    	0.999207    	0.999207    	0.998943    
 2               	0.999207    	0.999207    	0.999207    	0.999207    	0.999207    	0.999472    
 2               	0.999604    	0.999472    	0.999604    	0.999736    	0.999472    	0.999472    
 2               	0.999472    	0.999604    	1.000000    	1.000000    	1.000000    	1.000132    
 2               	1.000000    	1.000000    	1.000132    	1.000132    	0.999604    	1.000264    
 2               	0.999472    	0.999340    	0.999207    	0.999340    	0.999207    	0.999340    
 2               	0.999207    	0.999207    	0.999340    	0.999207    	0.999207    	0.999207    
 2               	0.998811    	0.998679    	0.998943    	0.999340    	0.999207    	0.999340    
 2               	0.999340    	0.999472    	0.999472    	0.999736    	0.999472    	0.999472    
 2               	0.999340    	0.999472    	0.999604    	0.999207    	0.999472    	0.999340    
 2               	0.999736    	1.000000    	1.000000    	1.000000    	1.000000    	1.000264    
 2               	1.000000    	0.999472    	0.999736    	0.999736    	1.000000    	1.000000    
 2               	0.999868    	0.999736    	0.999868    	1.000132    	1.000000    	1.000264    
 2               	1.000264    	1.000528    	1.000000    	1.000396    	1.000660    	1.000528    
 2               	1.000528    	1.000793    	1.000528    	1.000793    	1.000396    	1.001057    
 2               	1.000793    	1.000660    	1.000793    	1.000793    	1.000396    	1.000528    
 2               	1.000528    	1.000528    	1.000660    	1.000660    	1.000660    	1.000660    
 2               	1.000528    	1.000264    	0.999868    	0.999340    	1.000264    	1.000528    
 2               	1.000528    	1.000528    	1.000528    	1.000793    	1.000793    	1.000528    
 2               	1.000660    	1.000793    	1.000793    	1.000925    	1.001057    	1.001189    
 2               	1.000925    	1.000925    	1.000793    	1.000925    	1.000528    	1.000660    
 2               	1.000660    	1.000660    	1.000528    	1.000264    	1.000396    	1.000264    
 2               	1.000528    	1.000660    	1.000264    	1.000264    	1.000396    	1.000528    
 2               	1.000528    	1.000660    	1.000660    	1.000660    	1.000528    	1.000396    
 2               	1.000396    	1.000396    	1.000528    	1.000793    	1.000793    	1.000528    
 2               	1.000660    	1.000660    	1.000528    	1.000660    	1.000660    	1.000793    
 2               	1.000660    	1.001057    	1.001057    	1.001189    	1.001453    	1.001189    
 2               	1.001585    	1.001321    	1.001057    	1.001189    	1.001189    	1.001321    
 2               	1.001321    	1.001321    	1.001321    	1.001585    	1.001453    	1.001453    
 2               	1.001321    	1.001321    	1.001453    	1.001453    	1.001453    	1.001321    
 2               	1.001585    	1.000793    	1.001189    	1.001189    	1.000925    	1.000925    
 2               	1.001057    	1.001057    	1.001057    	1.001189    	1.001057    	1.001057    
 2               	1.001057    	1.000793    	1.001189    	1.001321    	1.001321    	1.001057    
 2               	1.001189    	1.001057    	1.001057    	1.001189    	1.001057    	1.000793    
 2               	1.000925    	1.000528    	1.001321    	1.001585    	1.001717    	1.001585    
 2               	1.001849    	1.001717    	1.001717    	1.001585    	1.001717    	1.001585    
 2               	1.001585    	1.001585    	1.001585    	1.001585    	1.001585    	1.001585    
 2               	1.001585    	1.001453    	1.001717    	1.001585    	1.001717    	1.001849    
 2               	1.001717    	1.001849    	1.001717    	1.001717    	1.001849    	1.001849    
 2               	1.002113    	1.001981    	1.002113    	1.002113    	1.002245    	1.002113    
 2               	1.002245    	1.002245    	1.002113    	1.002510    	1.002245    	1.002378    
 2               	1.002245    	1.002378    	1.002113    	1.002378    	1.002378    	1.002378    
 2               	1.002378    	1.002378    	1.001585    	1.002113    	1.001981    	1.002113    
 2               	1.002113    	1.001849    	1.001717    	1.001717    	1.001849    	1.001717    
 2               	1.001717    	1.001849    	1.001585    	1.001849    	1.001717    	1.001849    
 2               	1.001849    	1.002113    	1.001981    	1.001849    	1.001849    	1.002113    
 2               	1.002378    	1.001981    	1.002113    	1.001849    	1.001981    	1.002113    
 2               	1.002245    	1.002113    	1.002113    	1.002113    	1.002245    	1.002113    
 2               	1.002378    	1.002113    	1.002245    	1.002113    	1.002113    	1.002113    
 2               	1.002378    	1.002510    	1.002378    	1.002245    	1.002245    	1.002378    
 2               	1.002245    	1.002378    	1.002378    	1.002378    	1.001849    	1.002378    
 2               	1.001981    	1.002378    	1.002245    	1.002378    	1.002510    	1.002378    
 2               	1.002378    	1.002245    	1.002245    	1.002642    	1.002642    	1.002642    
 2               	1.002774    	1.002245    	1.002245    	1.002113    	1.002510    	1.002642    
 2               	1.002642    	1.002378    	1.002642    	1.002642    	1.002510    	1.002906    
 2               	1.002510    	1.002378    	1.002642    	1.002510    	1.002510    	1.002642    
 2               	1.002642    	1.002642    	1.002642    	1.002642    	1.002510    	1.002510    
 2               	1.002113    	1.002113    	1.001849    	1.001849    	1.001585    	1.001717    
 2               	1.001849    	1.001717    	1.001585    	1.001849    	1.001585    	1.001849    
 2               	1.001585    	1.001849    	1.001981    	1.002113    	1.002113    	1.001717    
 2               	1.001717    	1.001717    	1.001585    	1.001585    	1.001849    	1.001981    
 2               	1.001717    	1.001717    	1.001717    	1.001057    	1.001585    	1.001321    
 2               	1.001321    	1.000925    	1.000793    	1.000528    	1.000528    	1.000000    
 2               	1.000264    	1.000264    	0.999472    	1.000000    	0.999868    	0.999868    
 2               	0.999736    	0.999472    	0.999472    	0.998943    	0.998415    	0.998679    
 2               	0.998415    	0.998415    	0.998415    	0.998151    	0.998679    	0.998679    
 2               	0.998679    	0.998679    	0.998811    	0.998811    	0.998811    	0.998679    
 2               	0.998415    	0.998019    	0.998019    	0.997755    	0.997622    	0.997755    
 2               	0.997755    	0.997622    	0.997887    	0.998151    	0.998283    	0.998283    
 2               	0.998679    	0.998943    	0.998943    	0.998811    	0.998547    	0.998943    
 2               	0.998811    	0.998943    	0.998943    	0.999207    	0.999472    	0.999604    
 2               	1.000000    	0.999868    	1.000000    	1.000000    	1.000264    	0.999868    
 2               	0.999472    	0.999207    	0.998943    	0.999075    	0.999075    	0.999207    
 2               	0.999075    	0.999472    	0.999472    	0.999604    	0.999472    	1.000000    
 2               	0.999868    	0.999868    	0.999472    	0.999472    	0.999604    	0.999472    
 2               	0.999472    	0.999207    	0.999472    	0.999604    	1.000000    	1.000000    
 2               	1.000264    	1.000264    	1.000396    	1.000264    	0.999868    	1.000000    

[CURVES]
;ID              	X-Value     	Y-Value

[CONTROLS]




[RULES]




[ENERGY]
 Global Efficiency  	75
 Global Price       	0
 Demand Charge      	0

[EMITTERS]
;Junction        	Coefficient

[QUALITY]
;Node            	InitQual

[SOURCES]
;Node            	Type        	Quality     	Pattern

[REACTIONS]
;Type     	Pipe/Tank       	Coefficient


[REACTIONS]
 Order Bulk            	1
 Order Tank            	1
 Order Wall            	1
 Global Bulk           	0
 Global Wall           	0
 Limiting Potential    	0
 Roughness Correlation 	0

[MIXING]
;Tank            	Model

[TIMES]
 Duration           	24:00 
 Hydraulic Timestep 	0:15 
 Quality Timestep   	0:05 
 Pattern Timestep   	0:15 
 Pattern Start      	0:00 
 Report Timestep    	0:15 
 Report Start       	0:00 
 Start ClockTime    	12 am
 Statistic          	NONE

[REPORT]
 Status             	No
 Summary            	No
 Page               	0

[OPTIONS]
 Units              	LPS
 Headloss           	H-W
 Specific Gravity   	1
 Viscosity          	1
 Trials             	40
 Accuracy           	0.001
 CHECKFREQ          	2
 MAXCHECK           	10
 DAMPLIMIT          	0
 Unbalanced         	Continue 10
 Pattern            	1
 Demand Multiplier  	1.0
 Emitter Exponent   	0.5
 Quality            	None mg/L
 Diffusivity        	1
 Tolerance          	0.01

[COORDINATES]
;Node            	X-Coord         	Y-Coord
 2               	3896.83         	9031.75         
 3               	3896.83         	7904.76         
 4               	3071.43         	7873.02         
 5               	2706.35         	6761.90         
 6               	2309.52         	5714.29         
 7               	2055.56         	5142.86         
 8               	1611.11         	4111.11         
 9               	1214.29         	3206.35         
 10              	833.33          	2269.84         
 11              	-39.68          	2238.10         
 12              	-1420.63        	2238.10         
 13              	-4293.65        	2269.84         
 14              	1865.08         	2190.48         
 15              	2595.24         	2063.49         
 16              	3468.25         	1841.27         
 17              	3833.33         	4174.60         
 18              	3896.83         	5746.03         
 19              	3896.83         	7206.35         
 20              	5928.57         	7920.63         
 21              	7214.29         	8000.00         
 22              	8325.40         	7904.76         
 23              	5912.70         	5539.68         
 24              	5611.11         	4047.62         
 25              	5198.41         	2253.97         
 26              	4769.84         	2031.75         
 27              	4150.79         	1857.14         
 28              	7690.48         	5412.70         
 29              	7357.14         	3761.90         
 30              	7208.33         	716.67          
 31              	6753.97         	1095.24         
 32              	6166.67         	1857.14         
 1               	3891.67         	9616.67         

[VERTICES]
;Link            	X-Coord         	Y-Coord

[LABELS]
;X-Coord           Y-Coord          Label & Anchor Node
 4025.00          9016.67          "1"                 
 4125.00          8200.00          "2"                 
 2858.33          8133.33          "3"                 
 2441.67          7016.67          "4"                 
 2058.33          5916.67          "5"                 
 1758.33          5333.33          "6"                 
 1425.00          4383.33          "7"                 
 1008.33          3450.00          "8"                 
 725.00           2050.00          "9"                 
 -141.67          1933.33          "10"                 
 -1525.00         2000.00          "11"                 
 -4425.00         2000.00          "12"                 
 1691.67          1833.33          "13"                 
 2441.67          1733.33          "14"                 
 3291.67          1616.67          "15"                 
 3975.00          4150.00          "16"                 
 4075.00          5783.33          "17"                 
 4025.00          7200.00          "18"                 
 5841.67          8266.67          "19"                 
 7108.33          7883.33          "20"                 
 8225.00          7766.67          "21"                 
 6008.33          5883.33          "22"                 
 5741.67          4116.67          "23"                 
 5475.00          2633.33          "24"                 
 4708.33          1750.00          "25"                 
 4075.00          1583.33          "26"                 
 7858.33          5550.00          "27"                 
 7491.67          3833.33          "28"                 
 7341.67          716.67           "29"                 
 6558.33          916.67           "30"                 
 5958.33          1616.67          "31"                 

[BACKDROP]
 DIMENSIONS     	0.00            	0.00            	10000.00        	10000.00        
 UNITS          	None
 FILE           	
 OFFSET         	0.00            	0.00            

[END]
